# generated using pymatgen
data_NaMgFe(SO4)2
_symmetry_space_group_name_H-M   'P 1'
_cell_length_a   5.20770979
_cell_length_b   5.21072923
_cell_length_c   6.39225707
_cell_angle_alpha   93.04329029
_cell_angle_beta   92.97774145
_cell_angle_gamma   68.22346623
_symmetry_Int_Tables_number   1
_chemical_formula_structural   NaMgFe(SO4)2
_chemical_formula_sum   'Na1 Mg1 Fe1 S2 O8'
_cell_volume   160.75709605
_cell_formula_units_Z   1
loop_
 _symmetry_equiv_pos_site_id
 _symmetry_equiv_pos_as_xyz
  1  'x, y, z'
loop_
 _atom_site_type_symbol
 _atom_site_label
 _atom_site_symmetry_multiplicity
 _atom_site_fract_x
 _atom_site_fract_y
 _atom_site_fract_z
 _atom_site_occupancy
  Na  Na0  1  0.00329900  0.00508700  0.47535600  1
  Mg  Mg1  1  0.67809800  0.68189800  0.76580900  1
  Fe  Fe2  1  0.99585500  0.99783300  0.99610500  1
  S  S3  1  0.63163700  0.63250500  0.25241400  1
  S  S4  1  0.36290700  0.36339200  0.74250700  1
  O  O5  1  0.74271700  0.74302900  0.07614000  1
  O  O6  1  0.26439300  0.26276300  0.92026200  1
  O  O7  1  0.72747500  0.72822200  0.45920200  1
  O  O8  1  0.27431800  0.27395800  0.54197600  1
  O  O9  1  0.74746300  0.32804500  0.23579900  1
  O  O10  1  0.32708400  0.74856000  0.23595200  1
  O  O11  1  0.27247200  0.68123800  0.75657500  1
  O  O12  1  0.68061400  0.27569300  0.75618900  1
