# generated using pymatgen
data_MgTlV4FeS8
_symmetry_space_group_name_H-M   'P 1'
_cell_length_a   3.44875402
_cell_length_b   9.04602965
_cell_length_c   9.06040210
_cell_angle_alpha   104.39935973
_cell_angle_beta   100.97730268
_cell_angle_gamma   90.00965846
_symmetry_Int_Tables_number   1
_chemical_formula_structural   MgTlV4FeS8
_chemical_formula_sum   'Mg1 Tl1 V4 Fe1 S8'
_cell_volume   268.43724784
_cell_formula_units_Z   1
loop_
 _symmetry_equiv_pos_site_id
 _symmetry_equiv_pos_as_xyz
  1  'x, y, z'
loop_
 _atom_site_type_symbol
 _atom_site_label
 _atom_site_symmetry_multiplicity
 _atom_site_fract_x
 _atom_site_fract_y
 _atom_site_fract_z
 _atom_site_occupancy
  Mg  Mg0  1  0.95573700  0.18351300  0.91018200  1
  Tl  Tl1  1  0.50908800  0.93109900  0.01622300  1
  V  V2  1  0.70161900  0.82663400  0.40276700  1
  V  V3  1  0.28902500  0.17763100  0.57682700  1
  V  V4  1  0.64932600  0.49868300  0.29780600  1
  V  V5  1  0.33866000  0.51613100  0.67735900  1
  Fe  Fe6  1  0.02096300  0.51504600  0.04012700  1
  S  S7  1  0.82659300  0.01836600  0.65206000  1
  S  S8  1  0.16589300  0.98606600  0.33100200  1
  S  S9  1  0.75607800  0.35114100  0.51157700  1
  S  S10  1  0.23831100  0.65859900  0.47619000  1
  S  S11  1  0.92129900  0.65309400  0.84176500  1
  S  S12  1  0.09061000  0.33601700  0.18076500  1
  S  S13  1  0.57147600  0.66409400  0.14148000  1
  S  S14  1  0.42960700  0.35576000  0.85815700  1
