# generated using pymatgen
data_CsMgFe(SO4)2
_symmetry_space_group_name_H-M   'P 1'
_cell_length_a   5.06516164
_cell_length_b   5.16334878
_cell_length_c   9.86395643
_cell_angle_alpha   90.21365977
_cell_angle_beta   89.53257350
_cell_angle_gamma   120.47981390
_symmetry_Int_Tables_number   1
_chemical_formula_structural   CsMgFe(SO4)2
_chemical_formula_sum   'Cs1 Mg1 Fe1 S2 O8'
_cell_volume   222.31660176
_cell_formula_units_Z   1
loop_
 _symmetry_equiv_pos_site_id
 _symmetry_equiv_pos_as_xyz
  1  'x, y, z'
loop_
 _atom_site_type_symbol
 _atom_site_label
 _atom_site_symmetry_multiplicity
 _atom_site_fract_x
 _atom_site_fract_y
 _atom_site_fract_z
 _atom_site_occupancy
  Cs  Cs0  1  0.99317000  0.99956700  0.56599300  1
  Mg  Mg1  1  0.65778500  0.33065600  0.24009600  1
  Fe  Fe2  1  0.99280400  0.99511700  0.98578800  1
  S  S3  1  0.33411900  0.66905600  0.19111400  1
  S  S4  1  0.66927000  0.33386900  0.82392000  1
  O  O5  1  0.71023400  0.07952700  0.86782100  1
  O  O6  1  0.37102600  0.28750700  0.87784200  1
  O  O7  1  0.05350300  0.38937900  0.14002600  1
  O  O8  1  0.66813400  0.34376500  0.67441100  1
  O  O9  1  0.33721800  0.67526900  0.33912600  1
  O  O10  1  0.33414800  0.94170800  0.13574200  1
  O  O11  1  0.92469800  0.62195600  0.87842500  1
  O  O12  1  0.61639100  0.67012400  0.13683900  1
