# generated using pymatgen
data_NbCoSi
_symmetry_space_group_name_H-M   Pnma
_cell_length_a   6.22421065
_cell_length_b   3.64243066
_cell_length_c   7.02129798
_cell_angle_alpha   90.00000000
_cell_angle_beta   90.00000000
_cell_angle_gamma   90.00000000
_symmetry_Int_Tables_number   62
_chemical_formula_structural   NbCoSi
_chemical_formula_sum   'Nb4 Co4 Si4'
_cell_volume   159.18164189
_cell_formula_units_Z   4
loop_
 _symmetry_equiv_pos_site_id
 _symmetry_equiv_pos_as_xyz
  1  'x, y, z'
  2  '-x, -y, -z'
  3  '-x+1/2, -y, z+1/2'
  4  'x+1/2, y, -z+1/2'
  5  'x+1/2, -y+1/2, -z+1/2'
  6  '-x+1/2, y+1/2, z+1/2'
  7  '-x, y+1/2, -z'
  8  'x, -y+1/2, z'
loop_
 _atom_type_symbol
 _atom_type_oxidation_number
  Nb2+  2.0
  Co2+  2.0
  Si4-  -4.0
loop_
 _atom_site_type_symbol
 _atom_site_label
 _atom_site_symmetry_multiplicity
 _atom_site_fract_x
 _atom_site_fract_y
 _atom_site_fract_z
 _atom_site_occupancy
  Nb2+  Nb0  4  0.01974176  0.25000000  0.18012648  1
  Co2+  Co1  4  0.14031657  0.25000000  0.56316491  1
  Si4-  Si2  4  0.22353050  0.75000000  0.38320778  1
