# generated using pymatgen
data_TiNiAs
_symmetry_space_group_name_H-M   Pnma
_cell_length_a   6.25430200
_cell_length_b   3.75051600
_cell_length_c   7.13502900
_cell_angle_alpha   90.00000000
_cell_angle_beta   90.00000000
_cell_angle_gamma   90.00000000
_symmetry_Int_Tables_number   62
_chemical_formula_structural   TiNiAs
_chemical_formula_sum   'Ti4 Ni4 As4'
_cell_volume   167.36537435
_cell_formula_units_Z   4
loop_
 _symmetry_equiv_pos_site_id
 _symmetry_equiv_pos_as_xyz
  1  'x, y, z'
  2  '-x, -y, -z'
  3  '-x+1/2, -y, z+1/2'
  4  'x+1/2, y, -z+1/2'
  5  'x+1/2, -y+1/2, -z+1/2'
  6  '-x+1/2, y+1/2, z+1/2'
  7  '-x, y+1/2, -z'
  8  'x, -y+1/2, z'
loop_
 _atom_type_symbol
 _atom_type_oxidation_number
  Ti2+  2.0
  Ni+  1.0
  As3-  -3.0
loop_
 _atom_site_type_symbol
 _atom_site_label
 _atom_site_symmetry_multiplicity
 _atom_site_fract_x
 _atom_site_fract_y
 _atom_site_fract_z
 _atom_site_occupancy
  Ti2+  Ti0  4  0.02632200  0.25000000  0.67910000  1
  Ni+  Ni1  4  0.14632500  0.25000000  0.06196200  1
  As3-  As2  4  0.23539400  0.75000000  0.87807500  1
