# generated using pymatgen
data_ScSiIr
_symmetry_space_group_name_H-M   Pnma
_cell_length_a   6.48457528
_cell_length_b   4.05940552
_cell_length_c   7.27832863
_cell_angle_alpha   90.00000000
_cell_angle_beta   90.00000000
_cell_angle_gamma   90.00000000
_symmetry_Int_Tables_number   62
_chemical_formula_structural   ScSiIr
_chemical_formula_sum   'Sc4 Si4 Ir4'
_cell_volume   191.59123425
_cell_formula_units_Z   4
loop_
 _symmetry_equiv_pos_site_id
 _symmetry_equiv_pos_as_xyz
  1  'x, y, z'
  2  '-x, -y, -z'
  3  '-x+1/2, -y, z+1/2'
  4  'x+1/2, y, -z+1/2'
  5  'x+1/2, -y+1/2, -z+1/2'
  6  '-x+1/2, y+1/2, z+1/2'
  7  '-x, y+1/2, -z'
  8  'x, -y+1/2, z'
loop_
 _atom_site_type_symbol
 _atom_site_label
 _atom_site_symmetry_multiplicity
 _atom_site_fract_x
 _atom_site_fract_y
 _atom_site_fract_z
 _atom_site_occupancy
  Sc  Sc0  4  0.00972758  0.25000000  0.31399265  1
  Si  Si1  4  0.20920441  0.75000000  0.12052375  1
  Ir  Ir2  4  0.16052327  0.25000000  0.93951018  1
