# generated using pymatgen
data_NaFeF4
_symmetry_space_group_name_H-M   P2_1/c
_cell_length_a   7.73810363
_cell_length_b   5.28664249
_cell_length_c   7.47549995
_cell_angle_alpha   90.00000000
_cell_angle_beta   100.61600727
_cell_angle_gamma   90.00000000
_symmetry_Int_Tables_number   14
_chemical_formula_structural   NaFeF4
_chemical_formula_sum   'Na4 Fe4 F16'
_cell_volume   300.57783794
_cell_formula_units_Z   4
loop_
 _symmetry_equiv_pos_site_id
 _symmetry_equiv_pos_as_xyz
  1  'x, y, z'
  2  '-x, -y, -z'
  3  '-x, y+1/2, -z+1/2'
  4  'x, -y+1/2, z+1/2'
loop_
 _atom_type_symbol
 _atom_type_oxidation_number
  Na+  1.0
  Fe3+  3.0
  F-  -1.0
loop_
 _atom_site_type_symbol
 _atom_site_label
 _atom_site_symmetry_multiplicity
 _atom_site_fract_x
 _atom_site_fract_y
 _atom_site_fract_z
 _atom_site_occupancy
  Na+  Na0  4  0.35701564  0.22002722  0.11539794  1
  Fe3+  Fe1  4  0.17295125  0.74001539  0.30301145  1
  F-  F2  4  0.04649890  0.07066590  0.70036756  1
  F-  F3  4  0.16782512  0.63114547  0.55287372  1
  F-  F4  4  0.31059817  0.02345835  0.38045533  1
  F-  F5  4  0.37818678  0.54198519  0.31394265  1
