# generated using pymatgen
data_Sr20FeCo9(MoO6)10
_symmetry_space_group_name_H-M   'P 1'
_cell_length_a   11.29307397
_cell_length_b   28.20413801
_cell_length_c   9.78391524
_cell_angle_alpha   30.21186737
_cell_angle_beta   106.64675133
_cell_angle_gamma   89.85890610
_symmetry_Int_Tables_number   1
_chemical_formula_structural   Sr20FeCo9(MoO6)10
_chemical_formula_sum   'Sr20 Fe1 Co9 Mo10 O60'
_cell_volume   1284.57136747
_cell_formula_units_Z   1
loop_
 _symmetry_equiv_pos_site_id
 _symmetry_equiv_pos_as_xyz
  1  'x, y, z'
loop_
 _atom_site_type_symbol
 _atom_site_label
 _atom_site_symmetry_multiplicity
 _atom_site_fract_x
 _atom_site_fract_y
 _atom_site_fract_z
 _atom_site_occupancy
  Sr  Sr0  1  0.12416700  0.15067200  0.49690200  1
  Sr  Sr1  1  0.12368200  0.35122900  0.49636400  1
  Sr  Sr2  1  0.12510900  0.55091600  0.49773600  1
  Sr  Sr3  1  0.12613300  0.74940800  0.50209900  1
  Sr  Sr4  1  0.12442300  0.94923500  0.50133500  1
  Sr  Sr5  1  0.37452700  0.05083700  0.49848500  1
  Sr  Sr6  1  0.37399100  0.25101300  0.49641600  1
  Sr  Sr7  1  0.37509800  0.45031600  0.49869400  1
  Sr  Sr8  1  0.37469700  0.64973400  0.49970600  1
  Sr  Sr9  1  0.37544800  0.84940600  0.50138800  1
  Sr  Sr10  1  0.62455200  0.15059300  0.49861200  1
  Sr  Sr11  1  0.62530300  0.35026600  0.50029400  1
  Sr  Sr12  1  0.62490200  0.54968400  0.50130600  1
  Sr  Sr13  1  0.62600900  0.74898700  0.50358400  1
  Sr  Sr14  1  0.62547300  0.94916300  0.50151500  1
  Sr  Sr15  1  0.87557700  0.05076500  0.49866500  1
  Sr  Sr16  1  0.87386700  0.25059200  0.49790100  1
  Sr  Sr17  1  0.87489100  0.44908400  0.50226400  1
  Sr  Sr18  1  0.87631800  0.64877100  0.50363600  1
  Sr  Sr19  1  0.87583300  0.84932800  0.50309800  1
  Fe  Fe20  1  0.00000000  0.00000000  0.00000000  1
  Co  Co21  1  0.00013800  0.20009400  0.00046500  1
  Co  Co22  1  0.99982500  0.39999100  0.99993100  1
  Co  Co23  1  0.99986200  0.79990600  0.99953500  1
  Co  Co24  1  0.50024100  0.20031200  0.99985600  1
  Co  Co25  1  0.50000000  0.00000000  0.00000000  1
  Co  Co26  1  0.50023500  0.40007400  0.99866800  1
  Co  Co27  1  0.49976500  0.59992600  0.00133200  1
  Co  Co28  1  0.49975900  0.79968800  0.00014400  1
  Co  Co29  1  0.00017500  0.60000900  0.00006900  1
  Mo  Mo30  1  0.25040000  0.10038700  0.99981900  1
  Mo  Mo31  1  0.25005600  0.29991200  0.00050700  1
  Mo  Mo32  1  0.25038200  0.49998800  0.99996800  1
  Mo  Mo33  1  0.25102200  0.69896100  0.00300700  1
  Mo  Mo34  1  0.25083300  0.89986800  0.00020500  1
  Mo  Mo35  1  0.74916700  0.10013200  0.99979500  1
  Mo  Mo36  1  0.74897800  0.30103900  0.99699300  1
  Mo  Mo37  1  0.74961800  0.50001200  0.00003200  1
  Mo  Mo38  1  0.74994400  0.70008800  0.99949300  1
  Mo  Mo39  1  0.74960000  0.89961300  0.00018100  1
  O  O40  1  0.13003800  0.04373300  0.52122600  1
  O  O41  1  0.12953900  0.24380800  0.51946700  1
  O  O42  1  0.12975200  0.44438400  0.51882300  1
  O  O43  1  0.12978000  0.64407200  0.51975900  1
  O  O44  1  0.12502000  0.85007100  0.49985300  1
  O  O45  1  0.11137900  0.14101200  0.00053600  1
  O  O46  1  0.11179100  0.34079800  0.00169400  1
  O  O47  1  0.11147500  0.54105300  0.00117700  1
  O  O48  1  0.10914200  0.74317500  0.99629500  1
  O  O49  1  0.11093400  0.94233200  0.00057300  1
  O  O50  1  0.14363600  0.04401900  0.00067800  1
  O  O51  1  0.14767100  0.24345100  0.00349800  1
  O  O52  1  0.14679100  0.44441500  0.00078100  1
  O  O53  1  0.14574300  0.64607800  0.99683800  1
  O  O54  1  0.14563700  0.84528000  0.00075700  1
  O  O55  1  0.37135200  0.15416200  0.48605500  1
  O  O56  1  0.37108600  0.35442000  0.48497700  1
  O  O57  1  0.37062700  0.75529700  0.48316600  1
  O  O58  1  0.37200900  0.55352000  0.48842300  1
  O  O59  1  0.37045500  0.95493600  0.48284000  1
  O  O60  1  0.35266900  0.35385000  0.00322400  1
  O  O61  1  0.35295500  0.15475700  0.00093900  1
  O  O62  1  0.35235800  0.55468300  0.00059100  1
  O  O63  1  0.35179500  0.75627300  0.99604300  1
  O  O64  1  0.35246500  0.95533100  0.00011800  1
  O  O65  1  0.38844300  0.25757000  0.00241400  1
  O  O66  1  0.38639300  0.05821100  0.00091400  1
  O  O67  1  0.38887700  0.65894200  0.99718800  1
  O  O68  1  0.38872700  0.45779400  0.00183300  1
  O  O69  1  0.38852600  0.85873000  0.00015500  1
  O  O70  1  0.62937300  0.24470300  0.51683400  1
  O  O71  1  0.62954500  0.04506400  0.51716000  1
  O  O72  1  0.62799200  0.44648000  0.51157700  1
  O  O73  1  0.62891400  0.64558000  0.51502300  1
  O  O74  1  0.62864800  0.84583800  0.51394500  1
  O  O75  1  0.61147400  0.14127000  0.99984500  1
  O  O76  1  0.61127300  0.54220600  0.99816700  1
  O  O77  1  0.61155700  0.74243000  0.99758600  1
  O  O78  1  0.61112300  0.34105800  0.00281200  1
  O  O79  1  0.61360700  0.94178900  0.99908600  1
  O  O80  1  0.64753500  0.04466900  0.99988200  1
  O  O81  1  0.64820500  0.24372700  0.00395700  1
  O  O82  1  0.64764200  0.44531700  0.99940900  1
  O  O83  1  0.64733100  0.64615000  0.99677600  1
  O  O84  1  0.64704500  0.84524300  0.99906100  1
  O  O85  1  0.87498000  0.14992900  0.50014700  1
  O  O86  1  0.87022000  0.35592800  0.48024100  1
  O  O87  1  0.87024800  0.55561600  0.48117700  1
  O  O88  1  0.87046100  0.75619200  0.48053300  1
  O  O89  1  0.86996200  0.95626700  0.47877400  1
  O  O90  1  0.85436300  0.15472000  0.99924300  1
  O  O91  1  0.85425700  0.35392200  0.00316200  1
  O  O92  1  0.85320900  0.55558500  0.99921900  1
  O  O93  1  0.85232900  0.75654900  0.99650200  1
  O  O94  1  0.85636400  0.95598100  0.99932200  1
  O  O95  1  0.88906600  0.05766800  0.99942700  1
  O  O96  1  0.89085800  0.25682500  0.00370500  1
  O  O97  1  0.88852500  0.45894700  0.99882300  1
  O  O98  1  0.88820900  0.65920200  0.99830600  1
  O  O99  1  0.88862100  0.85898800  0.99946400  1
