# generated using pymatgen
data_Na3FeC6O17
_symmetry_space_group_name_H-M   'P 1'
_cell_length_a   11.06600194
_cell_length_b   11.06600194
_cell_length_c   14.45454676
_cell_angle_alpha   79.31278031
_cell_angle_beta   100.68721969
_cell_angle_gamma   104.68504140
_symmetry_Int_Tables_number   1
_chemical_formula_structural   Na3FeC6O17
_chemical_formula_sum   'Na12 Fe4 C24 O68'
_cell_volume   1664.59226494
_cell_formula_units_Z   4
loop_
 _symmetry_equiv_pos_site_id
 _symmetry_equiv_pos_as_xyz
  1  'x, y, z'
loop_
 _atom_site_type_symbol
 _atom_site_label
 _atom_site_symmetry_multiplicity
 _atom_site_fract_x
 _atom_site_fract_y
 _atom_site_fract_z
 _atom_site_occupancy
  Na  Na0  1  0.28460319  0.28460319  0.75000000  1
  Na  Na1  1  0.71539681  0.71539681  0.25000000  1
  Na  Na2  1  0.99361441  0.99361441  0.75000000  1
  Na  Na3  1  0.00638559  0.00638559  0.25000000  1
  Na  Na4  1  0.22012757  0.87621032  0.04598596  1
  Na  Na5  1  0.87621032  0.22012757  0.45401404  1
  Na  Na6  1  0.77987243  0.12378968  0.95401404  1
  Na  Na7  1  0.12378968  0.77987243  0.54598596  1
  Na  Na8  1  0.47005852  0.34432511  0.99384511  1
  Na  Na9  1  0.34432511  0.47005852  0.50615489  1
  Na  Na10  1  0.52994148  0.65567489  0.00615489  1
  Na  Na11  1  0.65567489  0.52994148  0.49384511  1
  Fe  Fe12  1  0.55429861  0.16746053  0.24749667  1
  Fe  Fe13  1  0.16746053  0.55429861  0.25250333  1
  Fe  Fe14  1  0.44570139  0.83253947  0.75250333  1
  Fe  Fe15  1  0.83253947  0.44570139  0.74749667  1
  C  C16  1  0.73053743  0.07042474  0.17814961  1
  C  C17  1  0.07042474  0.73053743  0.32185039  1
  C  C18  1  0.26946257  0.92957526  0.82185039  1
  C  C19  1  0.92957526  0.26946257  0.67814961  1
  C  C20  1  0.71414701  0.99620029  0.28097907  1
  C  C21  1  0.99620029  0.71414701  0.21902093  1
  C  C22  1  0.28585299  0.00379971  0.71902093  1
  C  C23  1  0.00379971  0.28585299  0.78097907  1
  C  C24  1  0.60294919  0.43622271  0.18807897  1
  C  C25  1  0.43622271  0.60294919  0.31192103  1
  C  C26  1  0.39705081  0.56377729  0.81192103  1
  C  C27  1  0.56377729  0.39705081  0.68807897  1
  C  C28  1  0.69183099  0.41590858  0.28401442  1
  C  C29  1  0.41590858  0.69183099  0.21598558  1
  C  C30  1  0.30816901  0.58409142  0.71598558  1
  C  C31  1  0.58409142  0.30816901  0.78401442  1
  C  C32  1  0.29824193  0.03433526  0.21124347  1
  C  C33  1  0.03433526  0.29824193  0.28875653  1
  C  C34  1  0.70175807  0.96566474  0.78875653  1
  C  C35  1  0.96566474  0.70175807  0.71124347  1
  C  C36  1  0.31002839  0.09535274  0.30220399  1
  C  C37  1  0.09535274  0.31002839  0.19779601  1
  C  C38  1  0.68997161  0.90464726  0.69779601  1
  C  C39  1  0.90464726  0.68997161  0.80220399  1
  O  O40  1  0.34738443  0.11704492  0.97921365  1
  O  O41  1  0.11704492  0.34738443  0.52078635  1
  O  O42  1  0.65261557  0.88295508  0.02078635  1
  O  O43  1  0.88295508  0.65261557  0.47921365  1
  O  O44  1  0.26461856  0.17458407  0.97962646  1
  O  O45  1  0.17458407  0.26461856  0.52037354  1
  O  O46  1  0.73538144  0.82541593  0.02037354  1
  O  O47  1  0.82541593  0.73538144  0.47962646  1
  O  O48  1  0.32226462  0.55114926  0.01934361  1
  O  O49  1  0.55114926  0.32226462  0.48065639  1
  O  O50  1  0.67773538  0.44885074  0.98065639  1
  O  O51  1  0.44885074  0.67773538  0.51934361  1
  O  O52  1  0.19545321  0.68427233  0.98031429  1
  O  O53  1  0.68427233  0.19545321  0.51968571  1
  O  O54  1  0.80454679  0.31572767  0.01968571  1
  O  O55  1  0.31572767  0.80454679  0.48031429  1
  O  O56  1  0.21075795  0.57187233  0.98373767  1
  O  O57  1  0.57187233  0.21075795  0.51626233  1
  O  O58  1  0.78924205  0.42812767  0.01626233  1
  O  O59  1  0.42812767  0.78924205  0.48373767  1
  O  O60  1  0.66132957  0.15176951  0.15064632  1
  O  O61  1  0.15176951  0.66132957  0.34935368  1
  O  O62  1  0.33867043  0.84823049  0.84935368  1
  O  O63  1  0.84823049  0.33867043  0.65064632  1
  O  O64  1  0.63956335  0.03265197  0.32326160  1
  O  O65  1  0.03265197  0.63956335  0.17673840  1
  O  O66  1  0.36043665  0.96734803  0.67673840  1
  O  O67  1  0.96734803  0.36043665  0.82326160  1
  O  O68  1  0.19573806  0.95296892  0.86795802  1
  O  O69  1  0.95296892  0.19573806  0.63204198  1
  O  O70  1  0.80426194  0.04703108  0.13204198  1
  O  O71  1  0.04703108  0.80426194  0.36795802  1
  O  O72  1  0.22774684  0.08849340  0.68703113  1
  O  O73  1  0.08849340  0.22774684  0.81296887  1
  O  O74  1  0.77225316  0.91150660  0.31296887  1
  O  O75  1  0.91150660  0.77225316  0.18703113  1
  O  O76  1  0.53158910  0.33416294  0.15940467  1
  O  O77  1  0.33416294  0.53158910  0.34059533  1
  O  O78  1  0.46841090  0.66583706  0.84059533  1
  O  O79  1  0.66583706  0.46841090  0.65940467  1
  O  O80  1  0.69125453  0.29860853  0.31582334  1
  O  O81  1  0.29860853  0.69125453  0.18417666  1
  O  O82  1  0.30874547  0.70139147  0.68417666  1
  O  O83  1  0.70139147  0.30874547  0.81582334  1
  O  O84  1  0.39390879  0.45493822  0.85542510  1
  O  O85  1  0.45493822  0.39390879  0.64457490  1
  O  O86  1  0.60609121  0.54506178  0.14457490  1
  O  O87  1  0.54506178  0.60609121  0.35542510  1
  O  O88  1  0.24513593  0.49125612  0.67824413  1
  O  O89  1  0.49125612  0.24513593  0.82175587  1
  O  O90  1  0.75486407  0.50874388  0.32175587  1
  O  O91  1  0.50874388  0.75486407  0.17824413  1
  O  O92  1  0.40338935  0.05556821  0.17736777  1
  O  O93  1  0.05556821  0.40338935  0.32263223  1
  O  O94  1  0.59661065  0.94443179  0.82263223  1
  O  O95  1  0.94443179  0.59661065  0.67736777  1
  O  O96  1  0.42431388  0.15722870  0.32887409  1
  O  O97  1  0.15722870  0.42431388  0.17112591  1
  O  O98  1  0.57568612  0.84277130  0.67112591  1
  O  O99  1  0.84277130  0.57568612  0.82887409  1
  O  O100  1  0.80473044  0.02884422  0.82411164  1
  O  O101  1  0.02884422  0.80473044  0.67588836  1
  O  O102  1  0.19526956  0.97115578  0.17588836  1
  O  O103  1  0.97115578  0.19526956  0.32411164  1
  O  O104  1  0.78321365  0.91678327  0.65847637  1
  O  O105  1  0.91678327  0.78321365  0.84152363  1
  O  O106  1  0.21678635  0.08321673  0.34152363  1
  O  O107  1  0.08321673  0.21678635  0.15847637  1
