# generated using pymatgen
data_Eu2FeSnO6
_symmetry_space_group_name_H-M   'P 1'
_cell_length_a   8.07368984
_cell_length_b   8.07368984
_cell_length_c   8.07368984
_cell_angle_alpha   90.00000000
_cell_angle_beta   90.00000000
_cell_angle_gamma   90.00000000
_symmetry_Int_Tables_number   1
_chemical_formula_structural   Eu2FeSnO6
_chemical_formula_sum   'Eu8 Fe4 Sn4 O24'
_cell_volume   526.27917405
_cell_formula_units_Z   4
loop_
 _symmetry_equiv_pos_site_id
 _symmetry_equiv_pos_as_xyz
  1  'x, y, z'
loop_
 _atom_site_type_symbol
 _atom_site_label
 _atom_site_symmetry_multiplicity
 _atom_site_fract_x
 _atom_site_fract_y
 _atom_site_fract_z
 _atom_site_occupancy
  Eu  Eu0  1  0.50000000  0.50000000  0.50000000  1
  Eu  Eu1  1  0.00000000  -0.00000000  -0.00000000  1
  Eu  Eu2  1  0.00000000  -0.00000000  0.50000000  1
  Eu  Eu3  1  0.00000000  0.50000000  -0.00000000  1
  Eu  Eu4  1  0.50000000  -0.00000000  -0.00000000  1
  Eu  Eu5  1  0.50000000  0.50000000  -0.00000000  1
  Eu  Eu6  1  0.50000000  -0.00000000  0.50000000  1
  Eu  Eu7  1  0.00000000  0.50000000  0.50000000  1
  Fe  Fe8  1  0.75000000  0.75000000  0.75000000  1
  Fe  Fe9  1  0.75000000  0.25000000  0.25000000  1
  Fe  Fe10  1  0.25000000  0.75000000  0.25000000  1
  Fe  Fe11  1  0.25000000  0.25000000  0.75000000  1
  Sn  Sn12  1  0.25000000  0.25000000  0.25000000  1
  Sn  Sn13  1  0.25000000  0.75000000  0.75000000  1
  Sn  Sn14  1  0.75000000  0.25000000  0.75000000  1
  Sn  Sn15  1  0.75000000  0.75000000  0.25000000  1
  O  O16  1  0.21508488  0.29028044  0.50348415  1
  O  O17  1  0.21508488  0.70971956  0.49651585  1
  O  O18  1  0.78491512  0.29028044  0.49651585  1
  O  O19  1  0.78491512  0.70971956  0.50348415  1
  O  O20  1  0.29028044  0.50348415  0.21508488  1
  O  O21  1  0.70971956  0.49651585  0.21508488  1
  O  O22  1  0.29028044  0.49651585  0.78491512  1
  O  O23  1  0.70971956  0.50348415  0.78491512  1
  O  O24  1  0.50348415  0.21508488  0.29028044  1
  O  O25  1  0.49651585  0.21508488  0.70971956  1
  O  O26  1  0.49651585  0.78491512  0.29028044  1
  O  O27  1  0.50348415  0.78491512  0.70971956  1
  O  O28  1  0.28491512  0.20971956  0.99651585  1
  O  O29  1  0.28491512  0.79028044  0.00348415  1
  O  O30  1  0.71508488  0.20971956  0.00348415  1
  O  O31  1  0.71508488  0.79028044  0.99651585  1
  O  O32  1  0.20971956  0.99651585  0.28491512  1
  O  O33  1  0.79028044  0.00348415  0.28491512  1
  O  O34  1  0.20971956  0.00348415  0.71508488  1
  O  O35  1  0.79028044  0.99651585  0.71508488  1
  O  O36  1  0.99651585  0.28491512  0.20971956  1
  O  O37  1  0.00348415  0.28491512  0.79028044  1
  O  O38  1  0.00348415  0.71508488  0.20971956  1
  O  O39  1  0.99651585  0.71508488  0.79028044  1
