# generated using pymatgen
data_MgFe(CoO3)2
_symmetry_space_group_name_H-M   'P 1'
_cell_length_a   7.09600377
_cell_length_b   2.89824925
_cell_length_c   5.44848267
_cell_angle_alpha   89.85426817
_cell_angle_beta   105.67732444
_cell_angle_gamma   78.16180073
_symmetry_Int_Tables_number   1
_chemical_formula_structural   MgFe(CoO3)2
_chemical_formula_sum   'Mg1 Fe1 Co2 O6'
_cell_volume   105.39022678
_cell_formula_units_Z   1
loop_
 _symmetry_equiv_pos_site_id
 _symmetry_equiv_pos_as_xyz
  1  'x, y, z'
loop_
 _atom_site_type_symbol
 _atom_site_label
 _atom_site_symmetry_multiplicity
 _atom_site_fract_x
 _atom_site_fract_y
 _atom_site_fract_z
 _atom_site_occupancy
  Mg  Mg0  1  0.20976300  0.39522900  0.68993900  1
  Fe  Fe1  1  0.35716500  0.32115700  0.25245400  1
  Co  Co2  1  0.96757000  0.01722200  0.04429300  1
  Co  Co3  1  0.65349600  0.67300300  0.66216500  1
  O  O4  1  0.05523100  0.47245400  0.27862600  1
  O  O5  1  0.36704700  0.81527100  0.53327500  1
  O  O6  1  0.65998800  0.17109000  0.88745400  1
  O  O7  1  0.27916800  0.86153300  0.99087600  1
  O  O8  1  0.64571800  0.17584900  0.43028800  1
  O  O9  1  0.93485300  0.53469100  0.79313200  1
