# generated using pymatgen
data_FeOF
_symmetry_space_group_name_H-M   'P 1'
_cell_length_a   3.05517696
_cell_length_b   6.58591465
_cell_length_c   6.58587859
_cell_angle_alpha   90.00056098
_cell_angle_beta   89.99997659
_cell_angle_gamma   90.00002341
_symmetry_Int_Tables_number   1
_chemical_formula_structural   FeOF
_chemical_formula_sum   'Fe4 O4 F4'
_cell_volume   132.51535026
_cell_formula_units_Z   4
loop_
 _symmetry_equiv_pos_site_id
 _symmetry_equiv_pos_as_xyz
  1  'x, y, z'
loop_
 _atom_site_type_symbol
 _atom_site_label
 _atom_site_symmetry_multiplicity
 _atom_site_fract_x
 _atom_site_fract_y
 _atom_site_fract_z
 _atom_site_occupancy
  Fe  Fe0  1  0.50000000  0.47456033  0.00717343  1
  Fe  Fe1  1  0.50000000  0.02543889  0.49282597  1
  Fe  Fe2  1  0.00000000  0.00717783  0.02543860  1
  Fe  Fe3  1  0.00000100  0.49282102  0.47456038  1
  O  O4  1  0.50000000  0.51171066  0.29919676  1
  O  O5  1  0.99999900  0.20080496  0.51172017  1
  O  O6  1  -0.00000000  0.29919488  0.98827996  1
  O  O7  1  0.50000000  0.98829105  0.20080283  1
  F  F8  1  0.50000000  0.98512146  0.80630751  1
  F  F9  1  -0.00000000  0.69368712  0.98513540  1
  F  F10  1  0.00000000  0.80631362  0.51486454  1
  F  F11  1  0.50000000  0.51487918  0.69369245  1
