# generated using pymatgen
data_EuMgFeO3
_symmetry_space_group_name_H-M   'P 1'
_cell_length_a   4.44249307
_cell_length_b   4.49225796
_cell_length_c   4.47386333
_cell_angle_alpha   97.64084187
_cell_angle_beta   82.76011911
_cell_angle_gamma   97.36822697
_symmetry_Int_Tables_number   1
_chemical_formula_structural   EuMgFeO3
_chemical_formula_sum   'Eu1 Mg1 Fe1 O3'
_cell_volume   87.21964282
_cell_formula_units_Z   1
loop_
 _symmetry_equiv_pos_site_id
 _symmetry_equiv_pos_as_xyz
  1  'x, y, z'
loop_
 _atom_site_type_symbol
 _atom_site_label
 _atom_site_symmetry_multiplicity
 _atom_site_fract_x
 _atom_site_fract_y
 _atom_site_fract_z
 _atom_site_occupancy
  Eu  Eu0  1  0.62092658  0.37434418  0.62466422  1
  Mg  Mg1  1  0.24643928  0.75495638  0.24580075  1
  Fe  Fe2  1  0.95515822  0.04546963  0.95470351  1
  O  O3  1  0.47477434  0.02469643  0.97569886  1
  O  O4  1  0.97639280  0.52436843  0.97403556  1
  O  O5  1  0.97630877  0.02616496  0.47509709  1
