# generated using pymatgen
data_CsBaVS4
_symmetry_space_group_name_H-M   Pnma
_cell_length_a   12.15479600
_cell_length_b   6.95890300
_cell_length_c   10.15613000
_cell_angle_alpha   90.00000000
_cell_angle_beta   90.00000000
_cell_angle_gamma   90.00000000
_symmetry_Int_Tables_number   62
_chemical_formula_structural   CsBaVS4
_chemical_formula_sum   'Cs4 Ba4 V4 S16'
_cell_volume   859.04657064
_cell_formula_units_Z   4
loop_
 _symmetry_equiv_pos_site_id
 _symmetry_equiv_pos_as_xyz
  1  'x, y, z'
  2  '-x, -y, -z'
  3  '-x+1/2, -y, z+1/2'
  4  'x+1/2, y, -z+1/2'
  5  'x+1/2, -y+1/2, -z+1/2'
  6  '-x+1/2, y+1/2, z+1/2'
  7  '-x, y+1/2, -z'
  8  'x, -y+1/2, z'
loop_
 _atom_type_symbol
 _atom_type_oxidation_number
  Cs+  1.0
  Ba2+  2.0
  V5+  5.0
  S2-  -2.0
loop_
 _atom_site_type_symbol
 _atom_site_label
 _atom_site_symmetry_multiplicity
 _atom_site_fract_x
 _atom_site_fract_y
 _atom_site_fract_z
 _atom_site_occupancy
  Cs+  Cs0  4  0.06645100  0.75000000  0.13312700  1
  Ba2+  Ba1  4  0.14950500  0.75000000  0.59479600  1
  V5+  V2  4  0.16942000  0.25000000  0.38091400  1
  S2-  S3  8  0.22570800  0.50121100  0.86804500  1
  S2-  S4  4  0.06075500  0.25000000  0.21238300  1
  S2-  S5  4  0.07757200  0.25000000  0.56274200  1
