# generated using pymatgen
data_CaLaTiFeO6
_symmetry_space_group_name_H-M   'P 1'
_cell_length_a   7.83899935
_cell_length_b   9.55892199
_cell_length_c   7.83894843
_cell_angle_alpha   113.85740566
_cell_angle_beta   90.73480129
_cell_angle_gamma   113.85705870
_symmetry_Int_Tables_number   1
_chemical_formula_structural   CaLaTiFeO6
_chemical_formula_sum   'Ca4 La4 Ti4 Fe4 O24'
_cell_volume   480.24942723
_cell_formula_units_Z   4
loop_
 _symmetry_equiv_pos_site_id
 _symmetry_equiv_pos_as_xyz
  1  'x, y, z'
loop_
 _atom_site_type_symbol
 _atom_site_label
 _atom_site_symmetry_multiplicity
 _atom_site_fract_x
 _atom_site_fract_y
 _atom_site_fract_z
 _atom_site_occupancy
  Ca  Ca0  1  0.64128800  0.24994400  0.09794600  1
  Ca  Ca1  1  0.14129500  0.24996500  0.59795800  1
  Ca  Ca2  1  0.34795900  0.74996200  0.39128800  1
  Ca  Ca3  1  0.84796100  0.74995800  0.89129200  1
  La  La4  1  0.14554900  0.24921300  0.11114800  1
  La  La5  1  0.64555600  0.24920900  0.61113100  1
  La  La6  1  0.86116900  0.74921600  0.39554300  1
  La  La7  1  0.36115100  0.74920100  0.89557200  1
  Ti  Ti8  1  0.99961800  0.49834200  0.49890200  1
  Ti  Ti9  1  0.49959800  0.49836100  0.99888400  1
  Ti  Ti10  1  0.24891300  0.99837100  0.24960900  1
  Ti  Ti11  1  0.74892900  0.99838600  0.74961100  1
  Fe  Fe12  1  0.25006000  0.00015900  0.75031500  1
  Fe  Fe13  1  0.50031500  0.50009600  0.50017100  1
  Fe  Fe14  1  0.75004300  0.00016100  0.25033200  1
  Fe  Fe15  1  0.00035000  0.50015200  0.00003700  1
  O  O16  1  0.59468800  0.75436200  0.57580900  1
  O  O17  1  0.09468600  0.75436500  0.07581900  1
  O  O18  1  0.82578400  0.25431200  0.34465800  1
  O  O19  1  0.32578000  0.25431000  0.84467200  1
  O  O20  1  0.97440100  0.95725500  0.76788200  1
  O  O21  1  0.47440900  0.95725500  0.26788400  1
  O  O22  1  0.51789000  0.45726300  0.22442700  1
  O  O23  1  0.01788600  0.45725900  0.72440700  1
  O  O24  1  0.77738300  0.54466100  0.56134800  1
  O  O25  1  0.27737800  0.54465400  0.06136000  1
  O  O26  1  0.31135300  0.04465700  0.02737500  1
  O  O27  1  0.81134900  0.04465100  0.52737600  1
  O  O28  1  0.67262800  0.74652000  0.15071100  1
  O  O29  1  0.17262700  0.74652100  0.65069600  1
  O  O30  1  0.90070400  0.24652300  0.92262800  1
  O  O31  1  0.40070800  0.24654300  0.42262700  1
  O  O32  1  0.98617100  0.54105100  0.27391100  1
  O  O33  1  0.48620900  0.54107100  0.77395100  1
  O  O34  1  0.52391400  0.04104800  0.73617200  1
  O  O35  1  0.02391100  0.04105400  0.23617000  1
  O  O36  1  0.19373800  0.95848700  0.47643800  1
  O  O37  1  0.69374600  0.95849200  0.97643500  1
  O  O38  1  0.72644100  0.45849400  0.94375600  1
  O  O39  1  0.22646200  0.45850200  0.44374800  1
