# generated using pymatgen
data_MgFe(CoO3)2
_symmetry_space_group_name_H-M   'P 1'
_cell_length_a   6.43280771
_cell_length_b   2.98151439
_cell_length_c   5.91531069
_cell_angle_alpha   87.24126729
_cell_angle_beta   103.02905628
_cell_angle_gamma   77.01581038
_symmetry_Int_Tables_number   1
_chemical_formula_structural   MgFe(CoO3)2
_chemical_formula_sum   'Mg1 Fe1 Co2 O6'
_cell_volume   107.12126561
_cell_formula_units_Z   1
loop_
 _symmetry_equiv_pos_site_id
 _symmetry_equiv_pos_as_xyz
  1  'x, y, z'
loop_
 _atom_site_type_symbol
 _atom_site_label
 _atom_site_symmetry_multiplicity
 _atom_site_fract_x
 _atom_site_fract_y
 _atom_site_fract_z
 _atom_site_occupancy
  Mg  Mg0  1  0.01713600  0.99410000  0.51258100  1
  Fe  Fe1  1  0.35684200  0.33326400  0.29996400  1
  Co  Co2  1  0.98940200  0.00854600  0.00703200  1
  Co  Co3  1  0.65807100  0.65546900  0.68235300  1
  O  O4  1  0.01465000  0.52639400  0.25775900  1
  O  O5  1  0.35608200  0.81359300  0.54537200  1
  O  O6  1  0.67828900  0.13287800  0.89035200  1
  O  O7  1  0.29480600  0.88213300  0.07655400  1
  O  O8  1  0.67504900  0.16568100  0.47329600  1
  O  O9  1  0.96967200  0.48794300  0.75473700  1
