# generated using pymatgen
data_Na3NiF6
_symmetry_space_group_name_H-M   P2_1/c
_cell_length_a   5.36002028
_cell_length_b   5.70200252
_cell_length_c   9.26377158
_cell_angle_alpha   90.00000000
_cell_angle_beta   124.15229056
_cell_angle_gamma   90.00000000
_symmetry_Int_Tables_number   14
_chemical_formula_structural   Na3NiF6
_chemical_formula_sum   'Na6 Ni2 F12'
_cell_volume   234.30148481
_cell_formula_units_Z   2
loop_
 _symmetry_equiv_pos_site_id
 _symmetry_equiv_pos_as_xyz
  1  'x, y, z'
  2  '-x, -y, -z'
  3  '-x, y+1/2, -z+1/2'
  4  'x, -y+1/2, z+1/2'
loop_
 _atom_type_symbol
 _atom_type_oxidation_number
  Na+  1.0
  Ni3+  3.0
  F-  -1.0
loop_
 _atom_site_type_symbol
 _atom_site_label
 _atom_site_symmetry_multiplicity
 _atom_site_fract_x
 _atom_site_fract_y
 _atom_site_fract_z
 _atom_site_occupancy
  Na+  Na0  4  0.27962659  0.06372337  0.75605651  1
  Na+  Na1  2  0.50000000  0.00000000  0.50000000  1
  Ni3+  Ni2  2  0.00000000  0.00000000  0.00000000  1
  F-  F3  4  0.10321766  0.05571521  0.22113615  1
  F-  F4  4  0.25827472  0.71674754  0.07895837  1
  F-  F5  4  0.32065033  0.17370492  0.04398719  1
