# generated using pymatgen
data_Mg14AlFe
_symmetry_space_group_name_H-M   'P 1'
_cell_length_a   6.26196767
_cell_length_b   6.26196717
_cell_length_c   9.85483034
_cell_angle_alpha   90.00000000
_cell_angle_beta   90.00000000
_cell_angle_gamma   120.00000257
_symmetry_Int_Tables_number   1
_chemical_formula_structural   Mg14AlFe
_chemical_formula_sum   'Mg14 Al1 Fe1'
_cell_volume   334.65813008
_cell_formula_units_Z   1
loop_
 _symmetry_equiv_pos_site_id
 _symmetry_equiv_pos_as_xyz
  1  'x, y, z'
loop_
 _atom_site_type_symbol
 _atom_site_label
 _atom_site_symmetry_multiplicity
 _atom_site_fract_x
 _atom_site_fract_y
 _atom_site_fract_z
 _atom_site_occupancy
  Mg  Mg0  1  0.16809620  0.83404760  0.12500000  1
  Mg  Mg1  1  0.16475098  0.83237499  0.62500000  1
  Mg  Mg2  1  0.66595240  0.33190380  0.12500000  1
  Mg  Mg3  1  0.66762501  0.33524902  0.62500000  1
  Mg  Mg4  1  0.66595240  0.83404760  0.12500000  1
  Mg  Mg5  1  0.66762501  0.83237499  0.62500000  1
  Mg  Mg6  1  0.32427707  0.17572293  0.38517971  1
  Mg  Mg7  1  0.32427707  0.17572293  0.86482029  1
  Mg  Mg8  1  0.32427707  0.64855514  0.38517971  1
  Mg  Mg9  1  0.32427707  0.64855514  0.86482029  1
  Mg  Mg10  1  0.85144486  0.17572293  0.38517971  1
  Mg  Mg11  1  0.85144486  0.17572293  0.86482029  1
  Mg  Mg12  1  0.83333300  0.66666700  0.37275454  1
  Mg  Mg13  1  0.83333300  0.66666700  0.87724546  1
  Al  Al14  1  0.16666700  0.33333300  0.12500000  1
  Fe  Fe15  1  0.16666700  0.33333300  0.62500000  1
