# generated using pymatgen
data_MgCrO4
_symmetry_space_group_name_H-M   Cmcm
_cell_length_a   5.48637830
_cell_length_b   8.32807833
_cell_length_c   6.33674738
_cell_angle_alpha   90.00000000
_cell_angle_beta   90.00000000
_cell_angle_gamma   90.00000000
_symmetry_Int_Tables_number   63
_chemical_formula_structural   MgCrO4
_chemical_formula_sum   'Mg4 Cr4 O16'
_cell_volume   289.53224983
_cell_formula_units_Z   4
loop_
 _symmetry_equiv_pos_site_id
 _symmetry_equiv_pos_as_xyz
  1  'x, y, z'
  2  '-x, -y, -z'
  3  '-x, -y, z+1/2'
  4  'x, y, -z+1/2'
  5  'x, -y, -z'
  6  '-x, y, z'
  7  '-x, y, -z+1/2'
  8  'x, -y, z+1/2'
  9  'x+1/2, y+1/2, z'
  10  '-x+1/2, -y+1/2, -z'
  11  '-x+1/2, -y+1/2, z+1/2'
  12  'x+1/2, y+1/2, -z+1/2'
  13  'x+1/2, -y+1/2, -z'
  14  '-x+1/2, y+1/2, z'
  15  '-x+1/2, y+1/2, -z+1/2'
  16  'x+1/2, -y+1/2, z+1/2'
loop_
 _atom_type_symbol
 _atom_type_oxidation_number
  Mg2+  2.0
  Cr6+  6.0
  O2-  -2.0
loop_
 _atom_site_type_symbol
 _atom_site_label
 _atom_site_symmetry_multiplicity
 _atom_site_fract_x
 _atom_site_fract_y
 _atom_site_fract_z
 _atom_site_occupancy
  Mg2+  Mg0  4  0.00000000  0.00000000  0.00000000  1
  Cr6+  Cr1  4  0.00000000  0.35858274  0.25000000  1
  O2-  O2  8  0.00000000  0.24642718  0.04205360  1
  O2-  O3  8  0.24755118  0.02665138  0.75000000  1
