# generated using pymatgen
data_Rb3FeS3
_symmetry_space_group_name_H-M   'P 1'
_cell_length_a   13.01123141
_cell_length_b   7.97866557
_cell_length_c   10.45525877
_cell_angle_alpha   52.79110649
_cell_angle_beta   90.00000000
_cell_angle_gamma   90.00000000
_symmetry_Int_Tables_number   1
_chemical_formula_structural   Rb3FeS3
_chemical_formula_sum   'Rb12 Fe4 S12'
_cell_volume   864.43902584
_cell_formula_units_Z   4
loop_
 _symmetry_equiv_pos_site_id
 _symmetry_equiv_pos_as_xyz
  1  'x, y, z'
loop_
 _atom_site_type_symbol
 _atom_site_label
 _atom_site_symmetry_multiplicity
 _atom_site_fract_x
 _atom_site_fract_y
 _atom_site_fract_z
 _atom_site_occupancy
  Rb  Rb0  1  0.92564961  0.64423257  0.61102825  1
  Rb  Rb1  1  0.42564961  0.35576743  0.88897175  1
  Rb  Rb2  1  0.07435039  0.35576743  0.38897175  1
  Rb  Rb3  1  0.57435039  0.64423257  0.11102825  1
  Rb  Rb4  1  0.63360417  0.61627969  0.51977019  1
  Rb  Rb5  1  0.13360417  0.38372031  0.98022981  1
  Rb  Rb6  1  0.36639583  0.38372031  0.48022981  1
  Rb  Rb7  1  0.86639583  0.61627969  0.01977019  1
  Rb  Rb8  1  0.80819946  0.13161197  0.58086883  1
  Rb  Rb9  1  0.30819946  0.86838803  0.91913117  1
  Rb  Rb10  1  0.19180054  0.86838803  0.41913117  1
  Rb  Rb11  1  0.69180054  0.13161197  0.08086883  1
  Fe  Fe12  1  0.55682336  0.93611822  0.65837461  1
  Fe  Fe13  1  0.05682336  0.06388178  0.84162539  1
  Fe  Fe14  1  0.44317664  0.06388178  0.34162539  1
  Fe  Fe15  1  0.94317664  0.93611822  0.15837461  1
  S  S16  1  0.10657432  0.86017983  0.11409595  1
  S  S17  1  0.60657432  0.13982017  0.38590405  1
  S  S18  1  0.89342568  0.13982017  0.88590405  1
  S  S19  1  0.39342568  0.86017983  0.61409595  1
  S  S20  1  0.04857830  0.88083642  0.74349588  1
  S  S21  1  0.54857830  0.11916358  0.75650412  1
  S  S22  1  0.95142170  0.11916358  0.25650412  1
  S  S23  1  0.45142170  0.88083642  0.24349588  1
  S  S24  1  0.66144160  0.65467043  0.80779070  1
  S  S25  1  0.16144160  0.34532957  0.69220930  1
  S  S26  1  0.33855840  0.34532957  0.19220930  1
  S  S27  1  0.83855840  0.65467043  0.30779070  1
