# generated using pymatgen
data_CrF4
_symmetry_space_group_name_H-M   C2/c
_cell_length_a   15.14918000
_cell_length_b   10.10947800
_cell_length_c   7.36946219
_cell_angle_alpha   90.00000000
_cell_angle_beta   102.67270279
_cell_angle_gamma   90.00000000
_symmetry_Int_Tables_number   15
_chemical_formula_structural   CrF4
_chemical_formula_sum   'Cr16 F64'
_cell_volume   1101.14086924
_cell_formula_units_Z   16
loop_
 _symmetry_equiv_pos_site_id
 _symmetry_equiv_pos_as_xyz
  1  'x, y, z'
  2  '-x, -y, -z'
  3  '-x, y, -z+1/2'
  4  'x, -y, z+1/2'
  5  'x+1/2, y+1/2, z'
  6  '-x+1/2, -y+1/2, -z'
  7  '-x+1/2, y+1/2, -z+1/2'
  8  'x+1/2, -y+1/2, z+1/2'
loop_
 _atom_type_symbol
 _atom_type_oxidation_number
  Cr4+  4.0
  F-  -1.0
loop_
 _atom_site_type_symbol
 _atom_site_label
 _atom_site_symmetry_multiplicity
 _atom_site_fract_x
 _atom_site_fract_y
 _atom_site_fract_z
 _atom_site_occupancy
  Cr4+  Cr0  8  0.00223700  0.25485500  0.49791700  1
  Cr4+  Cr1  8  0.18400100  0.00173600  0.60544300  1
  F-  F2  8  0.06841250  0.38658850  0.09132200  1
  F-  F3  8  0.06849700  0.09340900  0.59634100  1
  F-  F4  8  0.10153450  0.14196450  0.99943300  1
  F-  F5  8  0.10628350  0.33264750  0.51236700  1
  F-  F6  8  0.17816050  0.06069450  0.35184300  1
  F-  F7  8  0.22394900  0.39914300  0.89698900  1
  F-  F8  8  0.24071350  0.14570150  0.69318100  1
  F-  F9  4  0.00000000  0.18843500  0.25000000  1
  F-  F10  4  0.00000000  0.30821200  0.75000000  1
