# generated using pymatgen
data_NdFeO3
_symmetry_space_group_name_H-M   Pnma
_cell_length_a   5.63890520
_cell_length_b   7.77694011
_cell_length_c   5.46086797
_cell_angle_alpha   90.00000000
_cell_angle_beta   90.00000000
_cell_angle_gamma   90.00000000
_symmetry_Int_Tables_number   62
_chemical_formula_structural   NdFeO3
_chemical_formula_sum   'Nd4 Fe4 O12'
_cell_volume   239.47778048
_cell_formula_units_Z   4
loop_
 _symmetry_equiv_pos_site_id
 _symmetry_equiv_pos_as_xyz
  1  'x, y, z'
  2  '-x, -y, -z'
  3  '-x+1/2, -y, z+1/2'
  4  'x+1/2, y, -z+1/2'
  5  'x+1/2, -y+1/2, -z+1/2'
  6  '-x+1/2, y+1/2, z+1/2'
  7  '-x, y+1/2, -z'
  8  'x, -y+1/2, z'
loop_
 _atom_type_symbol
 _atom_type_oxidation_number
  Nd3+  3.0
  Fe3+  3.0
  O2-  -2.0
loop_
 _atom_site_type_symbol
 _atom_site_label
 _atom_site_symmetry_multiplicity
 _atom_site_fract_x
 _atom_site_fract_y
 _atom_site_fract_z
 _atom_site_occupancy
  Nd3+  Nd0  4  0.05512954  0.25000000  0.98700774  1
  Fe3+  Fe1  4  0.00000000  0.00000000  0.50000000  1
  O2-  O2  8  0.20428420  0.54829172  0.20384190  1
  O2-  O3  4  0.02598551  0.75000000  0.59153749  1
